[TITLE]
;;Project Title/Notes

[OPTIONS]
;;Option             Value
FLOW_UNITS           LPS
INFILTRATION         MODIFIED_GREEN_AMPT
FLOW_ROUTING         DYNWAVE
LINK_OFFSETS         DEPTH
MIN_SLOPE            0
ALLOW_PONDING        NO
SKIP_STEADY_STATE    NO

START_DATE           11/15/2021
START_TIME           00:00:00
REPORT_START_DATE    11/15/2021
REPORT_START_TIME    00:00:00
END_DATE             11/15/2021
END_TIME             00:01:00
SWEEP_START          01/01
SWEEP_END            12/31
DRY_DAYS             0
REPORT_STEP          00:00:01
WET_STEP             00:05:00
DRY_STEP             01:00:00
ROUTING_STEP         0.01
RULE_STEP            00:00:00

INERTIAL_DAMPING     NONE
NORMAL_FLOW_LIMITED  BOTH
FORCE_MAIN_EQUATION  D-W
VARIABLE_STEP        0.00
LENGTHENING_STEP     0
MIN_SURFAREA         0.000001
MAX_TRIALS           8
HEAD_TOLERANCE       0.0000001
SYS_FLOW_TOL         5
LAT_FLOW_TOL         5
MINIMUM_STEP         0.0000001
THREADS              1

[EVAPORATION]
;;Data Source    Parameters
;;-------------- ----------------
CONSTANT         0.0
DRY_ONLY         NO

[JUNCTIONS]
;;Name           Elevation  MaxDepth   InitDepth  SurDepth   Aponded   
;;-------------- ---------- ---------- ---------- ---------- ----------
2                0          1          0.073      1          0         
3                0          1          0.073      1          0         
4                0          1          0.073      1          0         
5                0          1          0.073      1          0         
6                0          1          0.073      1          0         
7                0          1          0.073      1          0         
8                0          1          0.073      1          0         
9                0          1          0.073      1          0         
10               0          1          0.073      1          0         
11               0          1          0.073      1          0         
12               0          1          0.073      1          0         
13               0          1          0.073      1          0         
14               0          1          0.073      1          0         
15               0          1          0.073      1          0         
16               0          1          0.073      1          0         
17               0          1          0.073      1          0         
18               0          1          0.073      1          0         
19               0          1          0.073      1          0         
20               0          1          0.073      1          0         

[OUTFALLS]
;;Name           Elevation  Type       Stage Data       Gated    Route To        
;;-------------- ---------- ---------- ---------------- -------- ----------------
22               0          FREE                        NO                       

[STORAGE]
;;Name           Elev.    MaxDepth   InitDepth  Shape      Curve Name/Params            N/A      Fevap    Psi      Ksat     IMD     
;;-------------- -------- ---------- ----------- ---------- ---------------------------- -------- --------          -------- --------
1                0        1          0.073      FUNCTIONAL 0.0625    0         0        1        0       
21               0        1          0.073      FUNCTIONAL 0.02835   0         0        0.5      0       

[CONDUITS]
;;Name           From Node        To Node          Length     Roughness  InOffset   OutOffset  InitFlow   MaxFlow   
;;-------------- ---------------- ---------------- ---------- ---------- ---------- ---------- ---------- ----------
1                1                2                0.715      0.012      0          0          0          0         
2                2                3                0.715      0.012      0          0          0          0         
3                3                4                0.715      0.012      0          0          0          0         
4                4                5                0.715      0.012      0          0          0          0         
5                5                6                0.715      0.012      0          0          0          0         
6                6                7                0.715      0.012      0          0          0          0         
7                7                8                0.715      0.012      0          0          0          0         
8                8                9                0.715      0.012      0          0          0          0         
9                9                10               0.715      0.012      0          0          0          0         
10               10               11               0.715      0.012      0          0          0          0         
11               11               12               0.715      0.012      0          0          0          0         
12               12               13               0.715      0.012      0          0          0          0         
13               13               14               0.715      0.012      0          0          0          0         
14               14               15               0.715      0.012      0          0          0          0         
15               15               16               0.715      0.012      0          0          0          0         
16               16               17               0.715      0.012      0          0          0          0         
17               17               18               0.715      0.012      0          0          0          0         
18               18               19               0.715      0.012      0          0          0          0         
19               19               20               0.715      0.012      0          0          0          0         
20               20               21               0.715      0.012      0          0          0          0         

[WEIRS]
;;Name           From Node        To Node          Type         CrestHt    Qcoeff     Gated    EndCon   EndCoeff   Surcharge  RoadWidth  RoadSurf   Coeff. Curve
;;-------------- ---------------- ---------------- ------------ ---------- ---------- -------- -------- ---------- ---------- ---------- ---------- ----------------
21               22               1                TRANSVERSE   0.31       3.2        NO       0        0          YES       

[XSECTIONS]
;;Link           Shape        Geom1            Geom2      Geom3      Geom4      Barrels    Culvert   
;;-------------- ------------ ---------------- ---------- ---------- ---------- ---------- ----------
1                CIRCULAR     0.094            0          0          0          1                    
2                CIRCULAR     0.094            0          0          0          1                    
3                CIRCULAR     0.094            0          0          0          1                    
4                CIRCULAR     0.094            0          0          0          1                    
5                CIRCULAR     0.094            0          0          0          1                    
6                CIRCULAR     0.094            0          0          0          1                    
7                CIRCULAR     0.094            0          0          0          1                    
8                CIRCULAR     0.094            0          0          0          1                    
9                CIRCULAR     0.094            0          0          0          1                    
10               CIRCULAR     0.094            0          0          0          1                    
11               CIRCULAR     0.094            0          0          0          1                    
12               CIRCULAR     0.094            0          0          0          1                    
13               CIRCULAR     0.094            0          0          0          1                    
14               CIRCULAR     0.094            0          0          0          1                    
15               CIRCULAR     0.094            0          0          0          1                    
16               CIRCULAR     0.094            0          0          0          1                    
17               CIRCULAR     0.094            0          0          0          1                    
18               CIRCULAR     0.094            0          0          0          1                    
19               CIRCULAR     0.094            0          0          0          1                    
20               CIRCULAR     0.094            0          0          0          1                    
21               RECT_OPEN    0.25             0.25       0          0         

[INFLOWS]
;;Node           Constituent      Time Series      Type     Mfactor  Sfactor  Baseline Pattern
;;-------------- ---------------- ---------------- -------- -------- -------- -------- --------
1                FLOW             vasconcelos_timeseries FLOW     1.0      1                

[CURVES]
;;Name           Type       X-Value    Y-Value   
;;-------------- ---------- ---------- ----------
Up_storage       Storage    0          0.0625    
Up_storage                  0.1        0.0625    
Up_storage                  0.2        0.0625    
Up_storage                  0.3        0.0625    
Up_storage                  0.31       0.0625    
Up_storage                  1          0.0625    
;
Dn_storage       Storage    0          0.02835   
Dn_storage                  0.1        0.02835   
Dn_storage                  0.2        0.02835   
Dn_storage                  0.3        0.02835   
Dn_storage                  0.4        0.02835   
Dn_storage                  0.5        0.02835   

[TIMESERIES]
;;Name           Date       Time       Value     
;;-------------- ---------- ---------- ----------
vasconcelos_timeseries 11/15/2021 0          3.1       
vasconcelos_timeseries            0.016664   3.1       
vasconcelos_timeseries            0.0166667  3.1       
vasconcelos_timeseries            0.0833333  3.1       
vasconcelos_timeseries            0.1666667  3.1       
vasconcelos_timeseries            0.3333333  3.1       
vasconcelos_timeseries            0.3344444  0         
vasconcelos_timeseries            0.4        0         

[REPORT]
;;Reporting Options
SUBCATCHMENTS ALL
NODES ALL
LINKS ALL

[TAGS]

[MAP]
DIMENSIONS 0.000 0.000 10000.000 10000.000
Units      None

[COORDINATES]
;;Node           X-Coord            Y-Coord           
;;-------------- ------------------ ------------------
2                200.000            4000.000          
3                400.000            4000.000          
4                600.000            4000.000          
5                800.000            4000.000          
6                1000.000           4000.000          
7                1200.000           4000.000          
8                1400.000           4000.000          
9                1600.000           4000.000          
10               1800.000           4000.000          
11               2000.000           4000.000          
12               2200.000           4000.000          
13               2400.000           4000.000          
14               2600.000           4000.000          
15               2800.000           4000.000          
16               3000.000           4000.000          
17               3200.000           4000.000          
18               3400.000           4000.000          
19               3600.000           4000.000          
20               3800.000           4000.000          
22               -400.000           4000.000          
1                0.000              4000.000          
21               4000.000           4000.000          

[VERTICES]
;;Link           X-Coord            Y-Coord           
;;-------------- ------------------ ------------------
21               50.392             3997.760          

